Version 4
SHEET 1 2216 680
WIRE 976 -64 928 -64
WIRE 1056 -64 976 -64
WIRE 1056 -48 1056 -64
WIRE 720 -32 672 -32
WIRE 720 0 720 -32
WIRE 976 0 976 -64
WIRE 976 0 720 0
WIRE 720 32 720 0
WIRE 720 32 560 32
WIRE 1056 64 1056 32
WIRE 560 112 560 32
WIRE 608 112 560 112
WIRE 720 128 672 128
WIRE 720 192 720 128
WIRE 720 192 512 192
WIRE 1056 192 1056 144
WIRE 208 304 128 304
WIRE 256 304 256 272
WIRE 256 304 208 304
WIRE 288 304 256 304
WIRE 368 304 288 304
WIRE 448 304 368 304
WIRE 512 304 512 192
WIRE 512 304 448 304
WIRE 976 304 512 304
WIRE 1056 304 1056 272
WIRE 128 320 128 304
WIRE 208 320 208 304
WIRE 288 320 288 304
WIRE 368 320 368 304
WIRE 448 320 448 304
WIRE 208 400 128 400
WIRE 256 400 208 400
WIRE 288 400 256 400
WIRE 368 400 288 400
WIRE 448 400 368 400
WIRE 976 400 976 304
WIRE 976 400 928 400
WIRE 1056 400 1056 384
WIRE 1056 400 976 400
WIRE 256 416 256 400
FLAG 928 -64 Phase_A
FLAG 928 400 Phase_B
FLAG -560 -48 0
FLAG -560 -128 12V
FLAG 608 -48 12V
FLAG 672 -64 A_HI
FLAG -560 160 0
FLAG -560 80 A_HI
FLAG 672 96 A_LO
FLAG -320 160 0
FLAG -320 80 A_LO
FLAG 256 416 0
FLAG 256 272 I_Raw
FLAG -320 -48 0
FLAG -320 -128 5V
FLAG -688 -48 0
FLAG -688 -112 12V
SYMBOL res 1040 288 R0
SYMATTR InstName R1
SYMATTR Value 0.1
SYMBOL ind 1040 176 R0
SYMATTR InstName L1
SYMATTR Value 12.5µ
SYMBOL res 1072 48 R180
WINDOW 0 36 76 Left 2
WINDOW 3 36 40 Left 2
SYMATTR InstName R2
SYMATTR Value 0.1
SYMBOL ind 1072 160 R180
WINDOW 0 36 80 Left 2
WINDOW 3 36 40 Left 2
SYMATTR InstName L2
SYMATTR Value 12.5µ
SYMBOL AutoGenerated\\irlb8748pbf 640 -48 R0
SYMATTR InstName U1
SYMBOL voltage -560 -144 R0
WINDOW 123 0 0 Left 0
WINDOW 39 -29 131 Left 2
SYMATTR SpiceLine Rser=1
SYMATTR InstName V1
SYMATTR Value 2.5
SYMBOL voltage -560 64 R0
WINDOW 3 -46 158 Left 2
WINDOW 123 0 0 Left 0
WINDOW 39 -45 137 Left 2
SYMATTR Value PULSE(0 20 10u 180n 100n 1u 30u)
SYMATTR SpiceLine Rser=10
SYMATTR InstName V2
SYMBOL AutoGenerated\\irlb8748pbf 640 112 R0
SYMATTR InstName U2
SYMBOL voltage -320 64 R0
WINDOW 3 -47 135 Left 2
WINDOW 123 0 0 Left 0
WINDOW 39 42 114 Left 2
SYMATTR Value PULSE(0 10 11.5u 180n 100n 28u 30u)
SYMATTR SpiceLine Rser=10
SYMATTR InstName V3
SYMBOL res 192 304 R0
SYMATTR InstName R4
SYMATTR Value 1
SYMBOL res 272 304 R0
SYMATTR InstName R5
SYMATTR Value 1
SYMBOL res 352 304 R0
SYMATTR InstName R6
SYMATTR Value 1
SYMBOL res 432 304 R0
SYMATTR InstName R7
SYMATTR Value 1
SYMBOL res 112 304 R0
SYMATTR InstName R8
SYMATTR Value 1
SYMBOL voltage -320 -144 R0
WINDOW 123 0 0 Left 0
WINDOW 39 24 124 Left 2
SYMATTR InstName V6
SYMATTR Value 5
SYMBOL cap -704 -112 R0
SYMATTR InstName C1
SYMATTR Value 10µ
TEXT -376 360 Left 2 !.tran 0 1.1m 1m
