Version 4
SHEET 1 2216 680
WIRE 416 -96 416 -128
WIRE 416 -96 240 -96
WIRE 240 -64 240 -96
WIRE 416 -64 416 -96
WIRE 976 -64 928 -64
WIRE 1056 -64 976 -64
WIRE 208 -48 176 -48
WIRE 1056 -48 1056 -64
WIRE 304 -32 272 -32
WIRE 720 -32 672 -32
WIRE -80 -16 -112 -16
WIRE 16 -16 0 -16
WIRE 64 -16 16 -16
WIRE 112 -16 64 -16
WIRE 208 -16 112 -16
WIRE 16 0 16 -16
WIRE 64 0 64 -16
WIRE 112 0 112 -16
WIRE 416 0 352 0
WIRE 720 0 720 -32
WIRE 976 0 976 -64
WIRE 976 0 720 0
WIRE 352 16 352 0
WIRE 720 32 720 0
WIRE 720 32 560 32
WIRE 1760 48 1760 16
WIRE 64 64 16 64
WIRE 112 64 64 64
WIRE 1056 64 1056 32
WIRE 112 80 112 64
WIRE 304 80 304 -32
WIRE 416 80 304 80
WIRE 176 96 176 -48
WIRE 208 96 176 96
WIRE 304 96 304 80
WIRE 304 96 288 96
WIRE 560 112 560 32
WIRE 608 112 560 112
WIRE 720 128 672 128
WIRE 1056 160 1056 144
WIRE 1152 160 1056 160
WIRE 1280 160 1232 160
WIRE 1408 160 1360 160
WIRE 1760 160 1760 128
WIRE 1760 160 1648 160
WIRE 1904 160 1760 160
WIRE 2048 160 1984 160
WIRE 720 192 720 128
WIRE 720 192 512 192
WIRE 1056 192 1056 160
WIRE 1760 208 1760 160
WIRE 720 288 672 288
WIRE 208 304 128 304
WIRE 256 304 256 272
WIRE 256 304 208 304
WIRE 288 304 256 304
WIRE 368 304 288 304
WIRE 448 304 368 304
WIRE 512 304 512 192
WIRE 512 304 448 304
WIRE 1056 304 1056 272
WIRE 128 320 128 304
WIRE 208 320 208 304
WIRE 288 320 288 304
WIRE 368 320 368 304
WIRE 448 320 448 304
WIRE 720 320 720 288
WIRE 976 320 720 320
WIRE 1760 336 1760 288
WIRE 720 352 720 320
WIRE 720 352 560 352
WIRE 208 400 128 400
WIRE 256 400 208 400
WIRE 288 400 256 400
WIRE 368 400 288 400
WIRE 448 400 368 400
WIRE 976 400 976 320
WIRE 976 400 928 400
WIRE 1056 400 1056 384
WIRE 1056 400 976 400
WIRE 256 416 256 400
WIRE 560 432 560 352
WIRE 608 432 560 432
WIRE 720 448 672 448
WIRE 512 512 512 304
WIRE 720 512 720 448
WIRE 720 512 512 512
FLAG 928 -64 Phase_A
FLAG 928 400 Phase_B
FLAG -496 -16 0
FLAG -496 -96 12V
FLAG 608 -48 12V
FLAG 672 -64 A_HI
FLAG -560 160 0
FLAG -560 80 A_HI
FLAG 1408 160 Phase_C
FLAG 672 96 A_LO
FLAG 608 272 12V
FLAG 672 256 B_HI
FLAG 672 416 B_LO
FLAG -320 160 0
FLAG -320 80 A_LO
FLAG -560 432 0
FLAG -560 352 B_HI
FLAG -336 432 0
FLAG -336 352 B_LO
FLAG 256 416 0
FLAG 256 272 I_Raw
FLAG -400 -16 0
FLAG -400 -96 5V
FLAG 352 16 0
FLAG 416 -128 5V
FLAG 416 80 I_Sense
FLAG -112 -16 I_Raw
FLAG 112 80 0
FLAG 176 176 0
FLAG 240 0 0
FLAG 1760 16 Phase_A
FLAG 1760 336 Phase_B
FLAG 2048 160 Phase_C
FLAG 1648 160 Neutral
SYMBOL res 1040 288 R0
SYMATTR InstName R1
SYMATTR Value 0.75
SYMBOL ind 1040 176 R0
SYMATTR InstName L1
SYMATTR Value 50µ
SYMBOL res 1072 48 R180
WINDOW 0 36 76 Left 2
WINDOW 3 36 40 Left 2
SYMATTR InstName R2
SYMATTR Value 0.75
SYMBOL ind 1072 160 R180
WINDOW 0 36 80 Left 2
WINDOW 3 36 40 Left 2
SYMATTR InstName L2
SYMATTR Value 50µ
SYMBOL AutoGenerated\\irlb8748pbf 640 -48 R0
SYMATTR InstName U1
SYMBOL voltage -496 -112 R0
WINDOW 123 0 0 Left 0
WINDOW 39 -65 122 Left 2
SYMATTR SpiceLine Rser=100m
SYMATTR InstName V1
SYMATTR Value 12
SYMBOL voltage -560 64 R0
WINDOW 3 -46 158 Left 2
WINDOW 123 0 0 Left 0
WINDOW 39 -45 137 Left 2
SYMATTR Value PULSE(0 20 1u 680n 150n 8u 40.04u 2)
SYMATTR SpiceLine Rser=10
SYMATTR InstName V2
SYMBOL res 1264 176 R270
WINDOW 0 32 56 VTop 2
WINDOW 3 0 56 VBottom 2
SYMATTR InstName R3
SYMATTR Value 0.75
SYMBOL ind 1136 176 R270
WINDOW 0 32 56 VTop 2
WINDOW 3 5 56 VBottom 2
SYMATTR InstName L3
SYMATTR Value 50µ
SYMBOL AutoGenerated\\irlb8748pbf 640 112 R0
SYMATTR InstName U2
SYMBOL AutoGenerated\\irlb8748pbf 640 272 R0
SYMATTR InstName U3
SYMBOL AutoGenerated\\irlb8748pbf 640 432 R0
SYMATTR InstName U4
SYMBOL voltage -320 64 R0
WINDOW 3 -47 135 Left 2
WINDOW 123 0 0 Left 0
WINDOW 39 42 114 Left 2
SYMATTR Value PULSE(0 10 9.52u 680n 150n 30u)
SYMATTR SpiceLine Rser=10
SYMATTR InstName V3
SYMBOL voltage -560 336 R0
WINDOW 3 -12 169 Left 2
WINDOW 123 0 0 Left 0
WINDOW 39 -45 137 Left 2
SYMATTR Value 0
SYMATTR SpiceLine Rser=10
SYMATTR InstName V4
SYMBOL voltage -336 336 R0
WINDOW 3 -45 172 Left 2
WINDOW 123 0 0 Left 0
WINDOW 39 -45 137 Left 2
SYMATTR Value PULSE(0 10 1u 680n 150n)
SYMATTR SpiceLine Rser=10
SYMATTR InstName V5
SYMBOL res 192 304 R0
SYMATTR InstName R4
SYMATTR Value 1
SYMBOL res 272 304 R0
SYMATTR InstName R5
SYMATTR Value 1
SYMBOL res 352 304 R0
SYMATTR InstName R6
SYMATTR Value 1
SYMBOL res 432 304 R0
SYMATTR InstName R7
SYMATTR Value 1
SYMBOL res 112 304 R0
SYMATTR InstName R8
SYMATTR Value 1
SYMBOL cap 400 -64 R0
SYMATTR InstName C1
SYMATTR Value 0.1µ
SYMBOL voltage -400 -112 R0
WINDOW 123 0 0 Left 0
WINDOW 39 24 124 Left 2
SYMATTR InstName V6
SYMATTR Value 5
SYMBOL cap 48 0 R0
WINDOW 3 -22 51 Left 2
SYMATTR InstName C2
SYMATTR Value 1n
SYMBOL cap 96 0 R0
WINDOW 3 23 49 Left 2
SYMATTR InstName C3
SYMATTR Value 100p
SYMBOL cap 0 0 R0
WINDOW 3 -47 54 Left 2
SYMATTR InstName C4
SYMATTR Value 10n
SYMBOL res 304 80 R90
WINDOW 0 91 58 VBottom 2
WINDOW 3 32 56 VTop 2
SYMATTR InstName R9
SYMATTR Value 40K
SYMBOL res 160 80 R0
WINDOW 0 -60 40 Left 2
WINDOW 3 -42 71 Left 2
SYMATTR InstName R10
SYMATTR Value 10K
SYMBOL Opamps\\LT6220 240 -32 R0
WINDOW 3 -32 80 Left 2
SYMATTR InstName U6
SYMBOL res 1744 32 R0
SYMATTR InstName R11
SYMATTR Value 10K
SYMBOL res 1744 192 R0
SYMATTR InstName R12
SYMATTR Value 10K
SYMBOL res 2000 144 R90
WINDOW 0 0 56 VBottom 2
WINDOW 3 32 56 VTop 2
SYMATTR InstName R13
SYMATTR Value 10K
SYMBOL res 16 -32 R90
WINDOW 0 0 56 VBottom 2
WINDOW 3 32 56 VTop 2
SYMATTR InstName R14
SYMATTR Value 50
TEXT 192 496 Left 2 !.tran 40u
